feeders/ILEC Rembrandt/main.glm
clock {
timezone PST+8PDT;
stoptime '2000-01-02 00:00:00';
starttime '2000-01-01 00:00:00';
};

#set minimum_timestep=60;
#set profiler=1;
#set relax_naming_rules=1;
module generators;
module tape;
module climate;
module residential {
implicit_enduses NONE;
};

module powerflow {
solver_method FBS;
NR_iteration_limit 50;
};

object climate {
name Climate;
interpolate QUADRATIC;
tmyfile climate.tmy2;
};

object node {
phases 7N;
name REMBRANDT;
bustype SWING;
nominal_voltage 7200.0;
};

object fuse {
phases 7N;
from REMBRANDT;
name RECL_1161;
current_limit 9999.0 A;
to nodePRUG6689RECL_1161;
};

object underground_line {
configuration object line_configuration {
spacing object line_spacing {
name PRUG6689-LINESPACING;
};
name PRUG6689-LINECONFIG;
};
phases 7;
from nodePRUG6689RECL_1161;
name PRUG6689;
to nodePRUG6690PRUG6689;
length 3151.9;
};

object underground_line {
configuration object line_configuration {
spacing object line_spacing {
name PRUG6690-LINESPACING;
};
name PRUG6690-LINECONFIG;
};
phases 7;
from nodePRUG6690PRUG6689;
name PRUG6690;
to nodePRUG6691PRUG6690;
length 106.228;
};

object underground_line {
configuration object line_configuration {
spacing object line_spacing {
name PRUG6691-LINESPACING;
};
name PRUG6691-LINECONFIG;
};
phases 7;
from nodePRUG6691PRUG6690;
name PRUG6691;
to nodePRUG6692PRUG6691;
length 210.857;
};

object underground_line {
configuration object line_configuration {
spacing object line_spacing {
name PRUG6692-LINESPACING;
};
name PRUG6692-LINECONFIG;
};
phases 7;
from nodePRUG6692PRUG6691;
name PRUG6692;
to nodePRUG6693PRUG6692;
length 150.334;
};

object underground_line {
configuration object line_configuration {
spacing object line_spacing {
name PRUG6693-LINESPACING;
};
name PRUG6693-LINECONFIG;
};
phases 7;
from nodePRUG6693PRUG6692;
name PRUG6693;
to nodeSWIT_737-APRUG6693;
length 260.294;
};

object fuse {
phases 7N;
from REMBRANDT;
name RECL_1162;
current_limit 9999.0 A;
to nodePRUG3301RECL_1162;
};

object underground_line {
configuration object line_configuration {
spacing object line_spacing {
name PRUG3301-LINESPACING;
};
name PRUG3301-LINECONFIG;
};
phases 7;
from nodePRUG3301RECL_1162;
name PRUG3301;
to nodePRUG5000PRUG3301;
length 794.966;
};

object underground_line {
configuration object line_configuration {
spacing object line_spacing {
name PRUG5000-LINESPACING;
};
name PRUG5000-LINECONFIG;
};
phases 7;
from nodePRUG5000PRUG3301;
name PRUG5000;
to nodePRUG3297PRUG5000;
length 3172.4;
};

object underground_line {
configuration object line_configuration {
spacing object line_spacing {
name PRUG3297-LINESPACING;
};
name PRUG3297-LINECONFIG;
};
phases 3;
from nodePRUG3297PRUG5000;
name PRUG3297;
to node263-32-311PRUG3297;
length 358.287;
};

object load {
phases 3N;
load_class R;
name 263-32-311;
parent node263-32-311PRUG3297;
constant_power_C 9.44403;
constant_power_A 0;
nominal_voltage 120;
constant_power_B 0;
};

object underground_line {
configuration object line_configuration {
spacing object line_spacing {
name PRUG5001-LINESPACING;
};
name PRUG5001-LINECONFIG;
};
phases 7;
from nodePRUG3297PRUG5000;
name PRUG5001;
to nodePRUG5002PRUG5001;
length 426.323;
};

object underground_line {
configuration object line_configuration {
spacing object line_spacing {
name PRUG5002-LINESPACING;
};
name PRUG5002-LINECONFIG;
};
phases 7;
from nodePRUG5002PRUG5001;
name PRUG5002;
to nodePROH16277PRUG5002;
length 848.662;
};

object overhead_line {
configuration object line_configuration {
spacing object line_spacing {
name PROH16277-LINESPACING;
};
name PROH16277-LINECONFIG;
conductor_N object overhead_line_conductor {
resistance 0;
geometric_mean_radius 0;
};
};
phases 1N;
from nodePROH16277PRUG5002;
name PROH16277;
to nodePROH279PROH16277;
length 2143.18;
};

object overhead_line {
configuration object line_configuration {
spacing object line_spacing {
name PROH279-LINESPACING;
};
name PROH279-LINECONFIG;
conductor_N object overhead_line_conductor {
resistance 0;
geometric_mean_radius 0;
};
};
phases 1N;
from nodePROH279PROH16277;
name PROH279;
to node263-31-260PROH279;
length 1004.64;
};

object load {
phases 1N;
load_class R;
name 263-31-260;
parent node263-31-260PROH279;
constant_power_C 0;
constant_power_A 10.8648;
nominal_voltage 120;
constant_power_B 0;
};

object overhead_line {
configuration object line_configuration {
spacing object line_spacing {
name PROH16278-LINESPACING;
};
name PROH16278-LINECONFIG;
conductor_N object overhead_line_conductor {
resistance 0;
geometric_mean_radius 0;
};
};
phases 1N;
from nodePROH279PROH16277;
name PROH16278;
to nodePROH16279PROH16278;
length 214.966;
};

object underground_line {
configuration object line_configuration {
spacing object line_spacing {
name PRUG84-LINESPACING;
};
name PRUG84-LINECONFIG;
};
phases 1;
from nodePROH16279PROH16278;
name PRUG84;
to node263-30-850PRUG84;
length 260.644;
};

object load {
phases 1N;
load_class R;
name 263-30-850;
parent node263-30-850PRUG84;
constant_power_C 0;
constant_power_A 4.11609;
nominal_voltage 120;
constant_power_B 0;
};

object underground_line {
configuration object line_configuration {
spacing object line_spacing {
name PRUG5361-LINESPACING;
};
name PRUG5361-LINECONFIG;
};
phases 7;
from nodePROH16277PRUG5002;
name PRUG5361;
to nodePROH277PRUG5361;
length 3866.74;
};

object overhead_line {
configuration object line_configuration {
spacing object line_spacing {
name PROH277-LINESPACING;
};
name PROH277-LINECONFIG;
conductor_N object overhead_line_conductor {
resistance 0;
geometric_mean_radius 0;
};
};
phases 1N;
from nodePROH277PRUG5361;
name PROH277;
to node263-30-380PROH277;
length 268.474;
};

object load {
phases 1N;
load_class R;
name 263-30-380;
parent node263-30-380PROH277;
constant_power_C 0;
constant_power_A 5.59956;
nominal_voltage 120;
constant_power_B 0;
};

object underground_line {
configuration object line_configuration {
spacing object line_spacing {
name PRUG5362-LINESPACING;
};
name PRUG5362-LINECONFIG;
};
phases 7;
from nodePROH277PRUG5361;
name PRUG5362;
to nodeSWIT_361-BPRUG5362;
length 947.289;
};

object underground_line {
configuration object line_configuration {
spacing object line_spacing {
name PRUG85-LINESPACING;
};
name PRUG85-LINECONFIG;
};
phases 2;
from nodePRUG5002PRUG5001;
name PRUG85;
to node263-32-310PRUG85;
length 305.542;
};

object load {
phases 2N;
load_class R;
name 263-32-310;
parent node263-32-310PRUG85;
constant_power_C 0;
constant_power_A 0;
nominal_voltage 120;
constant_power_B 0;
};

object underground_line {
configuration object line_configuration {
spacing object line_spacing {
name PRUG3303-LINESPACING;
};
name PRUG3303-LINECONFIG;
};
phases 7;
from nodePRUG5000PRUG3301;
name PRUG3303;
to nodePROH16622PRUG3303;
length 836.732;
};

object overhead_line {
configuration object line_configuration {
spacing object line_spacing {
name PROH16622-LINESPACING;
};
name PROH16622-LINECONFIG;
conductor_N object overhead_line_conductor {
resistance 0;
geometric_mean_radius 0;
};
};
phases 2N;
from nodePROH16622PRUG3303;
name PROH16622;
to nodeFUSE_434PROH16622;
length 242.872;
};

object fuse {
phases 2N;
from nodeFUSE_434PROH16622;
name FUSE_434;
current_limit 9999.0 A;
to nodePROH16623FUSE_434;
};

object overhead_line {
configuration object line_configuration {
spacing object line_spacing {
name PROH16623-LINESPACING;
};
name PROH16623-LINECONFIG;
conductor_N object overhead_line_conductor {
resistance 0;
geometric_mean_radius 0;
};
};
phases 2N;
from nodePROH16623FUSE_434;
name PROH16623;
to nodePROH2887PROH16623;
length 254.225;
};

object overhead_line {
configuration object line_configuration {
spacing object line_spacing {
name PROH2887-LINESPACING;
};
name PROH2887-LINECONFIG;
conductor_N object overhead_line_conductor {
resistance 0;
geometric_mean_radius 0;
};
};
phases 2N;
from nodePROH2887PROH16623;
name PROH2887;
to node283-05-120PROH2887;
length 442.266;
};

object load {
phases 2N;
load_class R;
name 283-05-120;
parent node283-05-120PROH2887;
constant_power_C 0;
constant_power_A 0;
nominal_voltage 120;
constant_power_B 0.835755;
};

object overhead_line {
configuration object line_configuration {
spacing object line_spacing {
name PROH16624-LINESPACING;
};
name PROH16624-LINECONFIG;
conductor_N object overhead_line_conductor {
resistance 0;
geometric_mean_radius 0;
};
};
phases 2N;
from nodePROH2887PROH16623;
name PROH16624;
to nodePROH2886PROH16624;
length 3290.55;
};

object overhead_line {
configuration object line_configuration {
spacing object line_spacing {
name PROH2886-LINESPACING;
};
name PROH2886-LINECONFIG;
conductor_N object overhead_line_conductor {
resistance 0;
geometric_mean_radius 0;
};
};
phases 2N;
from nodePROH2886PROH16624;
name PROH2886;
to node263-32-860PROH2886;
length 661.995;
};

object load {
phases 2N;
load_class R;
name 263-32-860;
parent node263-32-860PROH2886;
constant_power_C 0;
constant_power_A 0;
nominal_voltage 120;
constant_power_B 0;
};

object overhead_line {
configuration object line_configuration {
spacing object line_spacing {
name PROH8542-LINESPACING;
};
name PROH8542-LINECONFIG;
conductor_N object overhead_line_conductor {
resistance 0;
geometric_mean_radius 0;
};
};
phases 4N;
from nodePROH16622PRUG3303;
name PROH8542;
to nodePROH19454PROH8542;
length 81.2263;
};

object overhead_line {
configuration object line_configuration {
spacing object line_spacing {
name PROH19454-LINESPACING;
};
name PROH19454-LINECONFIG;
conductor_N object overhead_line_conductor {
resistance 0;
geometric_mean_radius 0;
};
};
phases 1N;
from nodePROH19454PROH8542;
name PROH19454;
to nodeRECL_844PROH19454;
length 171.711;
};

object fuse {
phases 1N;
from nodeRECL_844PROH19454;
name RECL_844;
current_limit 9999.0 A;
to nodePROH19455RECL_844;
};

object overhead_line {
configuration object line_configuration {
spacing object line_spacing {
name PROH19455-LINESPACING;
};
name PROH19455-LINECONFIG;
conductor_N object overhead_line_conductor {
resistance 0;
geometric_mean_radius 0;
};
};
phases 1N;
from nodePROH19455RECL_844;
name PROH19455;
to nodePROH266PROH19455;
length 2702.01;
};

object overhead_line {
configuration object line_configuration {
spacing object line_spacing {
name PROH266-LINESPACING;
};
name PROH266-LINECONFIG;
conductor_N object overhead_line_conductor {
resistance 0;
geometric_mean_radius 0;
};
};
phases 1N;
from nodePROH266PROH19455;
name PROH266;
to node283-06-131PROH266;
length 260.372;
};

object load {
phases 1N;
load_class R;
name 283-06-131;
parent node283-06-131PROH266;
constant_power_C 0;
constant_power_A 0.125363;
nominal_voltage 120;
constant_power_B 0;
};

object load {
phases 1N;
load_class R;
name 283-06-130;
parent node283-06-131PROH266;
constant_power_C 0;
constant_power_A 3.17378;
nominal_voltage 120;
constant_power_B 0;
};

object overhead_line {
configuration object line_configuration {
spacing object line_spacing {
name PROH19456-LINESPACING;
};
name PROH19456-LINECONFIG;
conductor_N object overhead_line_conductor {
resistance 0;
geometric_mean_radius 0;
};
};
phases 1N;
from nodePROH266PROH19455;
name PROH19456;
to nodePROH20016PROH19456;
length 2354.05;
};

object overhead_line {
configuration object line_configuration {
spacing object line_spacing {
name PROH20016-LINESPACING;
};
name PROH20016-LINECONFIG;
conductor_N object overhead_line_conductor {
resistance 0;
geometric_mean_radius 0;
};
};
phases 1N;
from nodePROH20016PROH19456;
name PROH20016;
to nodePROH268PROH20016;
length 171.315;
};

object overhead_line {
configuration object line_configuration {
spacing object line_spacing {
name PROH268-LINESPACING;
};
name PROH268-LINECONFIG;
conductor_N object overhead_line_conductor {
resistance 0;
geometric_mean_radius 0;
};
};
phases 1N;
from nodePROH268PROH20016;
name PROH268;
to node282-01-180PROH268;
length 88.6741;
};

object load {
phases 1N;
load_class R;
name 282-01-180;
parent node282-01-180PROH268;
constant_power_C 0;
constant_power_A 0.91933;
nominal_voltage 120;
constant_power_B 0;
};

object overhead_line {
configuration object line_configuration {
spacing object line_spacing {
name PROH20017-LINESPACING;
};
name PROH20017-LINECONFIG;
conductor_N object overhead_line_conductor {
resistance 0;
geometric_mean_radius 0;
};
};
phases 1N;
from nodePROH268PROH20016;
name PROH20017;
to nodePROH20018PROH20017;
length 2039.77;
};

object overhead_line {
configuration object line_configuration {
spacing object line_spacing {
name PROH20018-LINESPACING;
};
name PROH20018-LINECONFIG;
conductor_N object overhead_line_conductor {
resistance 0;
geometric_mean_radius 0;
};
};
phases 1N;
from nodePROH20018PROH20017;
name PROH20018;
to nodePRUG81PROH20018;
length 1659.7;
};

object underground_line {
configuration object line_configuration {
spacing object line_spacing {
name PRUG81-LINESPACING;
};
name PRUG81-LINECONFIG;
};
phases 1;
from nodePRUG81PROH20018;
name PRUG81;
to node282-01-680PRUG81;
length 784.938;
};

object load {
phases 1N;
load_class R;
name 282-01-680;
parent node282-01-680PRUG81;
constant_power_C 0;
constant_power_A 10.2798;
nominal_voltage 120;
constant_power_B 0;
};

object overhead_line {
configuration object line_configuration {
spacing object line_spacing {
name PROH20019-LINESPACING;
};
name PROH20019-LINECONFIG;
conductor_N object overhead_line_conductor {
resistance 0;
geometric_mean_radius 0;
};
};
phases 1N;
from nodePRUG81PROH20018;
name PROH20019;
to nodePROH20020PROH20019;
length 677.389;
};

object overhead_line {
configuration object line_configuration {
spacing object line_spacing {
name PROH20020-LINESPACING;
};
name PROH20020-LINECONFIG;
conductor_N object overhead_line_conductor {
resistance 0;
geometric_mean_radius 0;
};
};
phases 1N;
from nodePROH20020PROH20019;
name PROH20020;
to nodeSWIT_617-APROH20020;
length 721.565;
};

object overhead_line {
configuration object line_configuration {
spacing object line_spacing {
name PROH270-LINESPACING;
};
name PROH270-LINECONFIG;
conductor_N object overhead_line_conductor {
resistance 0;
geometric_mean_radius 0;
};
};
phases 1N;
from nodePROH20020PROH20019;
name PROH270;
to node283-06-720PROH270;
length 1628.51;
};

object load {
phases 1N;
load_class R;
name 283-06-720;
parent node283-06-720PROH270;
constant_power_C 0;
constant_power_A 5.68313;
nominal_voltage 120;
constant_power_B 0;
};

object overhead_line {
configuration object line_configuration {
spacing object line_spacing {
name PROH269-LINESPACING;
};
name PROH269-LINECONFIG;
conductor_N object overhead_line_conductor {
resistance 0;
geometric_mean_radius 0;
};
};
phases 1N;
from nodePROH20018PROH20017;
name PROH269;
to node283-06-310PROH269;
length 353.428;
};

object load {
phases 1N;
load_class R;
name 283-06-310;
parent node283-06-310PROH269;
constant_power_C 0;
constant_power_A 2.70576;
nominal_voltage 120;
constant_power_B 0;
};

object overhead_line {
configuration object line_configuration {
spacing object line_spacing {
name PROH16513-LINESPACING;
};
name PROH16513-LINECONFIG;
conductor_N object overhead_line_conductor {
resistance 0;
geometric_mean_radius 0;
};
};
phases 2N;
from nodePROH19454PROH8542;
name PROH16513;
to nodeRECL_845PROH16513;
length 356.333;
};

object fuse {
phases 2N;
from nodeRECL_845PROH16513;
name RECL_845;
current_limit 9999.0 A;
to nodePROH16514RECL_845;
};

object overhead_line {
configuration object line_configuration {
spacing object line_spacing {
name PROH16514-LINESPACING;
};
name PROH16514-LINECONFIG;
conductor_N object overhead_line_conductor {
resistance 0;
geometric_mean_radius 0;
};
};
phases 2N;
from nodePROH16514RECL_845;
name PROH16514;
to nodePROH16515PROH16514;
length 5239;
};

object overhead_line {
configuration object line_configuration {
spacing object line_spacing {
name PROH16515-LINESPACING;
};
name PROH16515-LINECONFIG;
conductor_N object overhead_line_conductor {
resistance 0;
geometric_mean_radius 0;
};
};
phases 2N;
from nodePROH16515PROH16514;
name PROH16515;
to nodePRUG834PROH16515;
length 3573.77;
};

object underground_line {
configuration object line_configuration {
spacing object line_spacing {
name PRUG834-LINESPACING;
};
name PRUG834-LINECONFIG;
};
phases 2;
from nodePRUG834PROH16515;
name PRUG834;
to node283-08-710PRUG834;
length 407.943;
};

object load {
phases 2N;
load_class R;
name 283-08-710;
parent node283-08-710PRUG834;
constant_power_C 0;
constant_power_A 0;
nominal_voltage 120;
constant_power_B 8.02325;
};

object overhead_line {
configuration object line_configuration {
spacing object line_spacing {
name PROH16516-LINESPACING;
};
name PROH16516-LINECONFIG;
conductor_N object overhead_line_conductor {
resistance 0;
geometric_mean_radius 0;
};
};
phases 2N;
from nodePRUG834PROH16515;
name PROH16516;
to node283-17-120PROH16516;
length 3046.11;
};

object load {
phases 2N;
load_class R;
name 283-17-120;
parent node283-17-120PROH16516;
constant_power_C 0;
constant_power_A 0;
nominal_voltage 120;
constant_power_B 0.668604;
};

object overhead_line {
configuration object line_configuration {
spacing object line_spacing {
name PROH11498-LINESPACING;
};
name PROH11498-LINECONFIG;
conductor_N object overhead_line_conductor {
resistance 0;
geometric_mean_radius 0;
};
};
phases 2N;
from nodePROH16515PROH16514;
name PROH11498;
to nodePROH2878PROH11498;
length 732.994;
};

object overhead_line {
configuration object line_configuration {
spacing object line_spacing {
name PROH2878-LINESPACING;
};
name PROH2878-LINECONFIG;
conductor_N object overhead_line_conductor {
resistance 0;
geometric_mean_radius 0;
};
};
phases 2N;
from nodePROH2878PROH11498;
name PROH2878;
to node283-08-120PROH2878;
length 156.322;
};

object load {
phases 2N;
load_class R;
name 283-08-120;
parent node283-08-120PROH2878;
constant_power_C 0;
constant_power_A 0;
nominal_voltage 120;
constant_power_B 2.68695;
};

object overhead_line {
configuration object line_configuration {
spacing object line_spacing {
name PROH11499-LINESPACING;
};
name PROH11499-LINECONFIG;
conductor_N object overhead_line_conductor {
resistance 0;
geometric_mean_radius 0;
};
};
phases 2N;
from nodePROH2878PROH11498;
name PROH11499;
to nodePROH2877PROH11499;
length 1448.01;
};

object overhead_line {
configuration object line_configuration {
spacing object line_spacing {
name PROH2877-LINESPACING;
};
name PROH2877-LINECONFIG;
conductor_N object overhead_line_conductor {
resistance 0;
geometric_mean_radius 0;
};
};
phases 2N;
from nodePROH2877PROH11499;
name PROH2877;
to node283-05-830PROH2877;
length 144.164;
};

object load {
phases 2N;
load_class R;
name 283-05-830;
parent node283-05-830PROH2877;
constant_power_C 0;
constant_power_A 0;
nominal_voltage 120;
constant_power_B 0.00208939;
};

object overhead_line {
configuration object line_configuration {
spacing object line_spacing {
name PROH11500-LINESPACING;
};
name PROH11500-LINECONFIG;
conductor_N object overhead_line_conductor {
resistance 0;
geometric_mean_radius 0;
};
};
phases 2N;
from nodePROH2877PROH11499;
name PROH11500;
to node283-08-170PROH11500;
length 810.044;
};

object load {
phases 2N;
load_class R;
name 283-08-170;
parent node283-08-170PROH11500;
constant_power_C 0;
constant_power_A 0;
nominal_voltage 120;
constant_power_B 3.46838;
};

object fuse {
phases 7N;
from REMBRANDT;
name RECL_1160;
current_limit 9999.0 A;
to nodePRUG4190RECL_1160;
};

object underground_line {
configuration object line_configuration {
spacing object line_spacing {
name PRUG4190-LINESPACING;
};
name PRUG4190-LINECONFIG;
};
phases 7;
from nodePRUG4190RECL_1160;
name PRUG4190;
to nodePRUG4176PRUG4190;
length 289.527;
};

object underground_line {
configuration object line_configuration {
spacing object line_spacing {
name PRUG4176-LINESPACING;
};
name PRUG4176-LINECONFIG;
};
phases 7;
from nodePRUG4176PRUG4190;
name PRUG4176;
to node263-32-710PRUG4176;
length 3185.68;
};

object load {
phases 7N;
load_class R;
name 263-32-710;
parent node263-32-710PRUG4176;
constant_power_C 1853.7;
constant_power_A 1853.7;
nominal_voltage 120;
constant_power_B 1853.7;
};

object capacitor {
control VOLT;
phases 7N;
capacitor_A 0.10 MVAr;
name NEWCAP-1D1DC669;
parent node263-32-710PRUG4176;
capacitor_C 0.10 MVAr;
capacitor_B 0.10 MVAr;
phases_connected ABCN;
time_delay 300.0;
nominal_voltage 2401.7771;
switchB CLOSED;
voltage_set_low 2340.0;
switchC CLOSED;
control_level INDIVIDUAL;
switchA CLOSED;
pt_phase ABCN;
dwell_time 0.0;
voltage_set_high 2350.0;
};

object fuse {
phases 7N;
from REMBRANDT;
name RECL_993;
current_limit 9999.0 A;
to nodePRUG4180RECL_993;
};

object node {
phases 7;
nominal_voltage 2400;
name nodePRUG6689RECL_1161;
};

object node {
phases 7;
nominal_voltage 2400;
name nodePRUG6690PRUG6689;
};

object node {
phases 7;
nominal_voltage 2400;
name nodePRUG6691PRUG6690;
};

object node {
phases 7;
nominal_voltage 2400;
name nodePRUG6692PRUG6691;
};

object node {
phases 7;
nominal_voltage 2400;
name nodePRUG6693PRUG6692;
};

object node {
phases 7N;
nominal_voltage 2400;
name nodeSWIT_737-APRUG6693;
};

object node {
phases 7;
nominal_voltage 2400;
name nodePRUG3301RECL_1162;
};

object node {
phases 7;
nominal_voltage 2400;
name nodePRUG5000PRUG3301;
};

object node {
phases 37;
nominal_voltage 2400;
name nodePRUG3297PRUG5000;
};

object node {
phases 3N;
nominal_voltage 2400;
name node263-32-311PRUG3297;
};

object node {
phases 27;
nominal_voltage 2400;
name nodePRUG5002PRUG5001;
};

object node {
phases 17N;
nominal_voltage 2400;
name nodePROH16277PRUG5002;
};

object node {
phases 1N;
nominal_voltage 2400;
name nodePROH279PROH16277;
};

object node {
phases 1N;
nominal_voltage 2400;
name node263-31-260PROH279;
};

object node {
phases 1N;
nominal_voltage 2400;
name nodePROH16279PROH16278;
};

object node {
phases 1N;
nominal_voltage 2400;
name node263-30-850PRUG84;
};

object node {
phases 17N;
nominal_voltage 2400;
name nodePROH277PRUG5361;
};

object node {
phases 1N;
nominal_voltage 2400;
name node263-30-380PROH277;
};

object node {
phases 7N;
nominal_voltage 2400;
name nodeSWIT_361-BPRUG5362;
};

object node {
phases 2N;
nominal_voltage 2400;
name node263-32-310PRUG85;
};

object node {
phases 24N;
nominal_voltage 2400;
name nodePROH16622PRUG3303;
};

object node {
phases 2N;
nominal_voltage 2400;
name nodeFUSE_434PROH16622;
};

object node {
phases 2N;
nominal_voltage 2400;
name nodePROH16623FUSE_434;
};

object node {
phases 2N;
nominal_voltage 2400;
name nodePROH2887PROH16623;
};

object node {
phases 2N;
nominal_voltage 2400;
name node283-05-120PROH2887;
};

object node {
phases 2N;
nominal_voltage 2400;
name nodePROH2886PROH16624;
};

object node {
phases 2N;
nominal_voltage 2400;
name node263-32-860PROH2886;
};

object node {
phases 12N;
nominal_voltage 2400;
name nodePROH19454PROH8542;
};

object node {
phases 1N;
nominal_voltage 2400;
name nodeRECL_844PROH19454;
};

object node {
phases 1N;
nominal_voltage 2400;
name nodePROH19455RECL_844;
};

object node {
phases 1N;
nominal_voltage 2400;
name nodePROH266PROH19455;
};

object node {
phases 1N;
nominal_voltage 2400;
name node283-06-131PROH266;
};

object node {
phases 1N;
nominal_voltage 2400;
name nodePROH20016PROH19456;
};

object node {
phases 1N;
nominal_voltage 2400;
name nodePROH268PROH20016;
};

object node {
phases 1N;
nominal_voltage 2400;
name node282-01-180PROH268;
};

object node {
phases 1N;
nominal_voltage 2400;
name nodePROH20018PROH20017;
};

object node {
phases 1N;
nominal_voltage 2400;
name nodePRUG81PROH20018;
};

object node {
phases 1N;
nominal_voltage 2400;
name node282-01-680PRUG81;
};

object node {
phases 1N;
nominal_voltage 2400;
name nodePROH20020PROH20019;
};

object node {
phases 1N;
nominal_voltage 2400;
name nodeSWIT_617-APROH20020;
};

object node {
phases 1N;
nominal_voltage 2400;
name node283-06-720PROH270;
};

object node {
phases 1N;
nominal_voltage 2400;
name node283-06-310PROH269;
};

object node {
phases 2N;
nominal_voltage 2400;
name nodeRECL_845PROH16513;
};

object node {
phases 2N;
nominal_voltage 2400;
name nodePROH16514RECL_845;
};

object node {
phases 2N;
nominal_voltage 2400;
name nodePROH16515PROH16514;
};

object node {
phases 2N;
nominal_voltage 2400;
name nodePRUG834PROH16515;
};

object node {
phases 2N;
nominal_voltage 2400;
name node283-08-710PRUG834;
};

object node {
phases 2N;
nominal_voltage 2400;
name node283-17-120PROH16516;
};

object node {
phases 2N;
nominal_voltage 2400;
name nodePROH2878PROH11498;
};

object node {
phases 2N;
nominal_voltage 2400;
name node283-08-120PROH2878;
};

object node {
phases 2N;
nominal_voltage 2400;
name nodePROH2877PROH11499;
};

object node {
phases 2N;
nominal_voltage 2400;
name node283-05-830PROH2877;
};

object node {
phases 2N;
nominal_voltage 2400;
name node283-08-170PROH11500;
};

object node {
phases 7;
nominal_voltage 2400;
name nodePRUG4190RECL_1160;
};

object node {
phases 7;
nominal_voltage 2400;
name nodePRUG4176PRUG4190;
};

object node {
phases 7N;
nominal_voltage 2400;
name node263-32-710PRUG4176;
};

object node {
phases 7;
nominal_voltage 2400;
name nodePRUG4180RECL_993;
};

